-------------------------------------------------------
          Amber 14 SANDER                              2014
          -------------------------------------------------------

  [-O]verwriting output

File Assignments:

 Here is the input file:

Constraint Langevin dynamics
 &cntrl
    ntx=1, ntb=0,nstlim=100000,
    pencut= 0.1, nmropt=1, ipnlty=1,
    imin=0, maxcyc=100,
    ntc=2, ntf=2, cut=9.0,
    ntpr=1000, ntwr=100000,ntwx=1000, ntt=3, gamma_ln=10.0,nscm=0,
   dt=0.001, ntb=0, temp0=300.,
   isgld=1, tsgavg=1.0, sgft=0.5,
   iemap=1, ioutfm=1,
 /
 &emap
  mapfile='data/mmlv_rna_cut1.ccp4',atmask=':1-132',fcons=0.02,
  resolution=20., ifit=0,
 /
 &wt type='END'   /
LISTOUT=POUT
DISANG=data/2.RST/DISANG-noe-chir-aco-hb-plan-pp-hh1.RST

--------------------------------------------------------------------------------
   1.  RESOURCE   USE:
--------------------------------------------------------------------------------

 NATOM  =    4278 NTYPES =      14 NBONH =    1442 MBONA  =    3174
 NTHETH =    3290 MTHETA =    4952 NPHIH =    6954 MPHIA  =    9536
 NHPARM =       0 NPARM  =       0 NNB   =   23892 NRES   =     132
 NBONA  =    3174 NTHETA =    4952 NPHIA =    9536 NUMBND =      46
 NUMANG =      94 NPTRA  =      61 NATYP =      27 NPHB   =       0
 IFBOX  =       0 NMXRS  =      35 IFCAP =       0 NEXTRA =       0
 NCOPY  =       0

--------------------------------------------------------------------------------
   2.  CONTROL  DATA  FOR  THE  RUN
--------------------------------------------------------------------------------

General flags:
     imin    =       0, nmropt  =       1

Nature and format of input:
     ntx     =       1, irest   =       0, ntrx    =       1

Nature and format of output:
     ntxo    =       1, ntpr    =    1000, ntrx    =       1, ntwr    =  100000
     iwrap   =       0, ntwx    =    1000, ntwv    =       0, ntwe    =       0
     ioutfm  =       1, ntwprt  =       0, idecomp =       0, rbornstat=      0

Potential function:
     ntf     =       2, ntb     =       0, igb     =       0, nsnb    =      25
     ipol    =       0, gbsa    =       0, iesp    =       0
     dielc   =   1.00000, cut     =   9.00000, intdiel =   1.00000

Frozen or restrained atoms:
     ibelly  =       0, ntr     =       0

Molecular dynamics:
     nstlim  =    100000, nscm    =         0, nrespa  =         1
     t       =   0.00000, dt      =   0.00100, vlimit  =  20.00000

Langevin dynamics temperature regulation:
     ig      =   71277
     temp0   = 300.00000, tempi   =   0.00000, gamma_ln=  10.00000

SHAKE:
     ntc     =       2, jfastw  =       0
     tol     =   0.00001

NMR refinement options:
     iscale  =       0, noeskp  =       1, ipnlty  =       1, mxsub   =       1
     scalm   = 100.00000, pencut  =   0.10000, tausw   =   0.10000

--------------------------------------------------------------------------------
   3.  ATOMIC COORDINATES AND VELOCITIES
--------------------------------------------------------------------------------

 begin time read from input coords =     0.000 ps

           Begin reading energy term weight changes/NMR restraints
 WEIGHT CHANGES:
                         ** No weight changes given **

 RESTRAINTS:
 Requested file redirections:
  LISTOUT   = POUT
  DISANG    = data/2.RST/DISANG-noe-chir-aco-hb-plan-pp-hh1.RST
 Restraints will be read from file: data/2.RST/DISANG-noe-chir-aco-hb-plan-pp-hh1.RST
Here are comments from the DISANG input file:
#
#   2  RG H8        2  RG H2'        4.20    (#   )

                       Number of restraints read =  6060

                  Done reading weight changes/NMR restraints

 Number of triangulated 3-point waters found:        0

     Sum of charges from parm topology file = ************

--------------------------------------------------------------------------------
   4.  RESULTS
 NSTEP =        0   TIME(PS) =       0.000  TEMP(K) =     0.00  PRESS =     0.0
 Etot   =     -3107.3274  EKtot   =         0.0000  EPtot      =     -3107.3274
 BOND   =       309.9796  ANGLE   =      6119.6627  DIHED      =      3096.8292
 1-4 NB =      3096.3542  1-4 EEL =    -15414.0469  VDWAALS    =     -1031.7337
 EELEC  =      2671.5674  EHBOND  =         0.0000  RESTRAINT  =     -1955.9398
 EAMBER (non-restraint)  =     -1151.3876
 SGLF =   0.5000   300.00    9.4868    9.4868  1.0000     -3107.3274     0.0000
 SGHF =   0.0000 0.000000  290.5132  290.5132  1.0000         0.0000     0.0000
 EMAP   =     -2477.9881
 ------------------------------------------------------------------------------

      A V E R A G E S   O V E R  100000 S T E P S

 NSTEP =   100000   TIME(PS) =     100.000  TEMP(K) =   300.37  PRESS =     0.0
 Etot   =     -9290.8281  EKtot   =      3399.9515  EPtot      =    -12690.7796
 BOND   =      1134.5639  ANGLE   =      2259.3896  DIHED      =      3411.5601
 1-4 NB =      1243.7170  1-4 EEL =    -16684.8074  VDWAALS    =     -2371.6180
 EELEC  =       603.0450  EHBOND  =         0.0000  RESTRAINT  =     -2286.6299
 EAMBER (non-restraint)  =    -10404.1498
 SGLF =   0.5000   371.18    0.7595    0.6202  0.9970    -12589.6505    40.7985
 SGHF =   0.0000 0.000978  299.2405  299.3798  0.9998      -101.1291     0.0000
 EMAP   =     -2763.7228
 ------------------------------------------------------------------------------

      R M S  F L U C T U A T I O N S

 NSTEP =   100000   TIME(PS) =     100.000  TEMP(K) =     7.37  PRESS =     0.0
 Etot   =       866.5180  EKtot   =        83.4146  EPtot      =       857.8074
 BOND   =        31.1573  ANGLE   =        60.8143  DIHED      =        37.0323
 1-4 NB =        21.5495  1-4 EEL =        45.4400  VDWAALS    =        24.8988
 EELEC  =       853.3865  EHBOND  =         0.0000  RESTRAINT  =        94.3842
 EAMBER (non-restraint)  =       763.4232
 SGLF =   0.0000    15.57    0.9313    0.8229  0.0013       771.2548   157.0220
 SGHF =   0.0000 0.000354    0.9313    0.8229  0.0000      1016.9064     0.0000
 EMAP   =       102.4117
 ------------------------------------------------------------------------------
