-------------------------------------------------------
          Amber 10 SANDER                              2008
          -------------------------------------------------------

  [-O]verwriting output

File Assignments:

 Here is the input file:

SPC/Fw water simulation: single water, no PBC.

&cntrl
  ipimd = 1
  ntb = 0
  cut = 100.0
  temp0  = 300.0,tempi  = 300.0, temp0les = -1.0    !! use single bath for LES
  ntt = 3, gamma_ln = 50.0
  dt = 0.0001,  nstlim = 1000
  nscm = 10000000
  ntpr = 100
  ntx = 1, irest = 0
/

--------------------------------------------------------------------------------
   1.  RESOURCE   USE:
--------------------------------------------------------------------------------

 NATOM  =      24 NTYPES =       2 NBONH =      24 MBONA  =       0
 NTHETH =       8 MTHETA =       0 NPHIH =       0 MPHIA  =       0
 NHPARM =       0 NPARM  =       1 NNB   =     277 NRES   =       1
 NBONA  =       0 NTHETA =       0 NPHIA =       0 NUMBND =       4
 NUMANG =       2 NPTRA  =       0 NATYP =       2 NPHB   =       1
 IFBOX  =       1 NMXRS  =      24 IFCAP =       0 NEXTRA =       0
 NCOPY  =       8

 LES parameters were found
       0 LES atom pairs require adjustment

     BOX TYPE: RECTILINEAR

--------------------------------------------------------------------------------
   2.  CONTROL  DATA  FOR  THE  RUN
--------------------------------------------------------------------------------

SPF

General flags:
     imin    =       0, nmropt  =       0

Nature and format of input:
     ntx     =       1, irest   =       0, ntrx    =       1

Nature and format of output:
     ntxo    =       1, ntpr    =     100, ntrx    =       1, ntwr    =     500
     iwrap   =       0, ntwx    =       0, ntwv    =       0, ntwe    =       0
     ioutfm  =       0, ntwprt  =       0, idecomp =       0, rbornstat=      0

Potential function:
     ntf     =       1, ntb     =       0, igb     =       0, nsnb    =      25
     ipol    =       0, gbsa    =       0, iesp    =       0
     dielc   =   1.00000, cut     = 100.00000, intdiel =   1.00000

Frozen or restrained atoms:
     ibelly  =       0, ntr     =       0

Molecular dynamics:
     nstlim  =      1000, nscm    =  10000000, nrespa  =         1
     t       =   0.00000, dt      =   0.00010, vlimit  =  20.00000

Langevin dynamics temperature regulation:
     ig      =   71277
     temp0   = 300.00000, tempi   = 300.00000, gamma_ln=  50.00000

--------------------------------------------------------------------------------
   3.  ATOMIC COORDINATES AND VELOCITIES
--------------------------------------------------------------------------------

SPF
 begin time read from input coords =     0.000 ps

 Number of triangulated 3-point waters found:        0

     Sum of charges from parm topology file =   0.00000002
     Forcing neutrality...

--------------------------------------------------------------------------------
   4.  RESULTS
 NSTEP =        0   TIME(PS) =       0.000  TEMP(K) =   317.09  PRESS =     0.0
 Etot   =         2.6827  EKtot   =         2.6827  EPtot      =         0.0000
 BOND   =         0.0000  ANGLE   =         0.0000  DIHED      =         0.0000
 1-4 NB =         0.0000  1-4 EEL =         0.0000  VDWAALS    =         0.0000
 EELEC  =         0.0000  EHBOND  =         0.0000  RESTRAINT  =         0.0000
 ------------------------------------------------------------------------------

      A V E R A G E S   O V E R    1000 S T E P S

 NSTEP =     1000   TIME(PS) =       0.100  TEMP(K) =   249.19  PRESS =     0.0
 Etot   =         8.3972  EKtot   =         5.1608  EPtot      =         3.2364
 BOND   =         2.6401  ANGLE   =         0.5962  DIHED      =         0.0000
 1-4 NB =         0.0000  1-4 EEL =         0.0000  VDWAALS    =         0.0000
 EELEC  =         0.0000  EHBOND  =         0.0000  RESTRAINT  =         0.0000
 ------------------------------------------------------------------------------

      R M S  F L U C T U A T I O N S

 NSTEP =     1000   TIME(PS) =       0.100  TEMP(K) =    52.58  PRESS =     0.0
 Etot   =         1.8129  EKtot   =         0.7803  EPtot      =         1.1059
 BOND   =         1.0101  ANGLE   =         0.2629  DIHED      =         0.0000
 1-4 NB =         0.0000  1-4 EEL =         0.0000  VDWAALS    =         0.0000
 EELEC  =         0.0000  EHBOND  =         0.0000  RESTRAINT  =         0.0000
 ------------------------------------------------------------------------------
