-------------------------------------------------------
          Amber 9  SANDER                 Scripps/UCSF 2004
          -------------------------------------------------------

  [-O]verwriting output

File Assignments:

 Here is the input file:

 dynamics
 &cntrl
  imin=0, ntmin=1, ntpr=10,
  ntx=1,
  cut=9999.0,
  igb=2, gbsa=0,
  extdiel=80.000000,
  nstlim=999999999, dt=0.002000, temp0=300.000000, tempi=300.000000, ig=1955459
  mmtsb_switch=1, mmtsb_iterations=4,
  icfe=1, clambda=0.500000,
  ntt=1, ntc=2, ntf=2,
  ntb=0, ntr=0
 &end

--------------------------------------------------------------------------------
   1.  RESOURCE   USE:
--------------------------------------------------------------------------------

 NATOM  =    1861 NTYPES =      14 NBONH =     909 MBONA  =     968
 NTHETH =    2060 MTHETA =    1310 NPHIH =    4040 MPHIA  =    2440
 NHPARM =       0 NPARM  =       0 NNB   =   10237 NRES   =     124
 NBONA  =     968 NTHETA =    1310 NPHIA =    2440 NUMBND =      33
 NUMANG =      71 NPTRA  =      38 NATYP =      22 NPHB   =       0
 IFBOX  =       0 NMXRS  =      24 IFCAP =       0 NEXTRA =       0
 NCOPY  =       0

Running a free energy calculation with lambda =  0.500

--------------------------------------------------------------------------------
   2.  CONTROL  DATA  FOR  THE  RUN
--------------------------------------------------------------------------------

General flags:
     imin    =       0, nmropt  =       0

Nature and format of input:
     ntx     =       1, irest   =       0, ntrx    =       1

Nature and format of output:
     ntxo    =       1, ntpr    =      10, ntrx    =       1, ntwr    =     500
     iwrap   =       0, ntwx    =       0, ntwv    =       0, ntwe    =       0
     ioutfm  =       0, ntwprt  =       0, idecomp =       0, rbornstat=      0

Potential function:
     ntf     =       2, ntb     =       0, igb     =       2, nsnb    =      25
     ipol    =       0, gbsa    =       0, iesp    =       0
     dielc   =   1.00000, cut     =9999.00000, intdiel =   1.00000
     saltcon =   0.00000, offset  =   0.09000, gbalpha=    0.80000
     gbbeta  =   0.00000, gbgamma =   2.90912, surften =   0.00500
     rdt     =   0.00000, rgbmax  =  25.00000

Frozen or restrained atoms:
     ibelly  =       0, ntr     =       0

Molecular dynamics:
     nstlim  =********, nscm    =    1000, nrespa  =       1
     t       =   0.00000, dt      =   0.00200, vlimit  =  20.00000

Berendsen (weak-coupling) temperature regulation:
     temp0   = 300.00000, tempi   = 300.00000, tautp   =   1.00000

SHAKE:
     ntc     =       2, jfastw  =       0
     tol     =   0.00001

Free energy options:
     klambda =       1
     clambda =   0.50000

MMTSB Replica Exchange:
     mmtsb_iterations  =        4
     Reading MMTSB setup from file: rnasea/aa1/amberrex.job
     chainlength  =        0
     sendfiles    =        0
     jobid        = aa1
     servername   = redfish.scripps.edu
     serverport   = 4100
     serverid     = 545681
     datadir      = rnasea/aa1
     temp0    =  300.00000

--------------------------------------------------------------------------------
   3.  ATOMIC COORDINATES AND VELOCITIES
--------------------------------------------------------------------------------

 begin time read from input coords =     0.000 ps

 Number of triangulated 3-point waters found:        0

--------------------------------------------------------------------------------
   4.  RESULTS
 NSTEP =        0   TIME(PS) =       0.000  TEMP(K) =   361.39  PRESS =     0.0
 Etot   =     -1933.6634  EKtot   =      1676.1865  EPtot      =     -3609.8499
 BOND   =       377.4246  ANGLE   =       954.1867  DIHED      =       892.7560
 1-4 NB =       386.7328  1-4 EEL =      5480.3401  VDWAALS    =      -894.0398
 EELEC  =     -8315.4962  EGB     =     -2491.7542  RESTRAINT  =         0.0000
 DV/DL  =       -70.8328
 ------------------------------------------------------------------------------

      A V E R A G E S   O V E R      20 S T E P S

 NSTEP =       20   TIME(PS) =       0.040  TEMP(K) =   302.69  PRESS =     0.0
 Etot   =     -2212.4089  EKtot   =      1403.8887  EPtot      =     -3616.2975
 BOND   =       381.8112  ANGLE   =       949.4664  DIHED      =       891.6762
 1-4 NB =       385.5915  1-4 EEL =      5472.7380  VDWAALS    =      -894.8977
 EELEC  =     -8317.0301  EGB     =     -2485.6532  RESTRAINT  =         0.0000
 DV/DL  =       -64.7172
 ------------------------------------------------------------------------------

      R M S  F L U C T U A T I O N S

 NSTEP =       20   TIME(PS) =       0.040  TEMP(K) =     5.24  PRESS =     0.0
 Etot   =        15.5479  EKtot   =        24.2843  EPtot      =        20.9272
 BOND   =        16.2011  ANGLE   =        18.7454  DIHED      =         3.2436
 1-4 NB =         3.3011  1-4 EEL =         7.3571  VDWAALS    =         4.6081
 EELEC  =         9.5682  EGB     =         5.9616  RESTRAINT  =         0.0000
 DV/DL  =         3.2375
 ------------------------------------------------------------------------------

      DV/DL, AVERAGES OVER      20 STEPS

 NSTEP =       20   TIME(PS) =       0.040  TEMP(K) =     0.00  PRESS =     0.0
 Etot   =         0.0000  EKtot   =         0.0000  EPtot      =       -64.7172
 BOND   =        -0.5164  ANGLE   =        -1.1099  DIHED      =        -5.2393
 1-4 NB =        -0.1718  1-4 EEL =        22.8650  VDWAALS    =         0.1097
 EELEC  =      -213.8968  EGB     =       133.2423  RESTRAINT  =         0.0000
 ------------------------------------------------------------------------------
