-------------------------------------------------------
          Amber 9  SANDER                 Scripps/UCSF 2004
          -------------------------------------------------------

  [-O]verwriting output

File Assignments:

 Here is the input file:

 dynamics
 &cntrl
  imin=0, ntmin=1, ntpr=1,
  ntx=1,
  cut=12.0,
  igb=1, gbsa=0,
  extdiel=80.000000,
  nstlim=999999999, dt=0.002000, temp0=300.000000, tempi=300.000000, ig=1069,
  mmtsb_switch=1, mmtsb_iterations=3,
  ntt=1, ntc=2, ntf=2,
  ntb=0, ntr=0
 &end

--------------------------------------------------------------------------------
   1.  RESOURCE   USE:
--------------------------------------------------------------------------------

 NATOM  =     882 NTYPES =      12 NBONH =     433 MBONA  =     463
 NTHETH =     985 MTHETA =     623 NPHIH =    1798 MPHIA  =    1101
 NHPARM =       0 NPARM  =       0 NNB   =    4863 NRES   =      57
 NBONA  =     463 NTHETA =     623 NPHIA =    1101 NUMBND =      24
 NUMANG =      53 NPTRA  =      24 NATYP =      16 NPHB   =       0
 IFBOX  =       0 NMXRS  =      26 IFCAP =       0 NEXTRA =       0
 NCOPY  =       0

--------------------------------------------------------------------------------
   2.  CONTROL  DATA  FOR  THE  RUN
--------------------------------------------------------------------------------

General flags:
     imin    =       0, nmropt  =       0

Nature and format of input:
     ntx     =       1, irest   =       0, ntrx    =       1

Nature and format of output:
     ntxo    =       1, ntpr    =       1, ntrx    =       1, ntwr    =     500
     iwrap   =       0, ntwx    =       0, ntwv    =       0, ntwe    =       0
     ioutfm  =       0, ntwprt  =       0, idecomp =       0, rbornstat=      0

Potential function:
     ntf     =       2, ntb     =       0, igb     =       1, nsnb    =      25
     ipol    =       0, gbsa    =       0, iesp    =       0
     dielc   =   1.00000, cut     =  12.00000, intdiel =   1.00000
     saltcon =   0.00000, offset  =   0.09000, gbalpha=    1.00000
     gbbeta  =   0.00000, gbgamma =   0.00000, surften =   0.00500
     rdt     =   0.00000, rgbmax  =  25.00000

Frozen or restrained atoms:
     ibelly  =       0, ntr     =       0

Molecular dynamics:
     nstlim  =********, nscm    =    1000, nrespa  =       1
     t       =   0.00000, dt      =   0.00200, vlimit  =  20.00000

Berendsen (weak-coupling) temperature regulation:
     temp0   = 300.00000, tempi   = 300.00000, tautp   =   1.00000

SHAKE:
     ntc     =       2, jfastw  =       0
     tol     =   0.00001

MMTSB Replica Exchange:
     mmtsb_iterations  =        3
     Reading MMTSB setup from file: bpti/aa2/amberrex.job
     chainlength  =        0
     sendfiles    =        0
     jobid        = aa2
     servername   = redfish.scripps.edu
     serverport   = 4100
     serverid     = 223303
     datadir      = bpti/aa2
     temp0    =  350.00000

--------------------------------------------------------------------------------
   3.  ATOMIC COORDINATES AND VELOCITIES
--------------------------------------------------------------------------------

 begin time read from input coords =     0.000 ps

 Number of triangulated 3-point waters found:        0

--------------------------------------------------------------------------------
   4.  RESULTS
 NSTEP =        0   TIME(PS) =       0.000  TEMP(K) =   375.07  PRESS =     0.0
 Etot   =     -1440.4110  EKtot   =       822.4794  EPtot      =     -2262.8904
 BOND   =       106.2223  ANGLE   =       185.9402  DIHED      =       278.0736
 1-4 NB =       236.8496  1-4 EEL =      1799.5550  VDWAALS    =      -378.3577
 EELEC  =     -3304.3032  EGB     =     -1186.8703  RESTRAINT  =         0.0000
 ------------------------------------------------------------------------------

      A V E R A G E S   O V E R      12 S T E P S

 NSTEP =       12   TIME(PS) =       0.024  TEMP(K) =   341.66  PRESS =     0.0
 Etot   =     -1338.0942  EKtot   =       749.2089  EPtot      =     -2087.3030
 BOND   =       154.3933  ANGLE   =       344.3827  DIHED      =       324.6769
 1-4 NB =       229.0511  1-4 EEL =      1720.3453  VDWAALS    =      -399.8281
 EELEC  =     -3435.2494  EGB     =     -1025.0749  RESTRAINT  =         0.0000
 ------------------------------------------------------------------------------

      R M S  F L U C T U A T I O N S

 NSTEP =       12   TIME(PS) =       0.024  TEMP(K) =   210.11  PRESS =     0.0
 Etot   =       403.4785  EKtot   =       460.7404  EPtot      =        85.5466
 BOND   =        27.7780  ANGLE   =        73.0505  DIHED      =        24.7007
 1-4 NB =         5.2606  1-4 EEL =        55.9001  VDWAALS    =         9.8147
 EELEC  =       116.0157  EGB     =       136.9336  RESTRAINT  =         0.0000
 ------------------------------------------------------------------------------
